Using: /usr/bin/time -p /applications/synopsys/2010.03/hspice/hspice/linux/hspice lab1nmos
